<?xml version="1.0" ?>
<additional>
    <tlLogic id="6" type="static" programID="1" offset="0">
        <phase duration="43" state="GGGrrrrrrrGGGrrrrrrr"/>
        <phase duration="3" state="yyyrrrrrrryyyrrrrrrr"/>
        <phase duration="2" state="rrrrrrrrrrrrrrrrrrrr"/>
        <phase duration="51" state="rrrrrGGGrrrrrrGGGrrr"/>
        <phase duration="3" state="rrrrryyyrrrrrryyyrrr"/>
        <phase duration="2" state="rrrrrrrrrrrrrrrrrrrr"/>
    </tlLogic>
    <tlLogic id="7" type="static" programID="1" offset="0">
        <phase duration="37" state="GGGrrrrrrrGGGrrrrrrr"/>
        <phase duration="3" state="yyyrrrrrrryyyrrrrrrr"/>
        <phase duration="2" state="rrrrrrrrrrrrrrrrrrrr"/>
        <phase duration="40" state="rrrrrGGGrrrrrrGGGrrr"/>
        <phase duration="3" state="rrrrryyyrrrrrryyyrrr"/>
        <phase duration="2" state="rrrrrrrrrrrrrrrrrrrr"/>
    </tlLogic>
    <tlLogic id="10" type="static" programID="1" offset="0">
        <phase duration="12" state="GGGrrrrrrrGGGrrrrrrr"/>
        <phase duration="3" state="yyyrrrrrrryyyrrrrrrr"/>
        <phase duration="2" state="rrrrrrrrrrrrrrrrrrrr"/>
        <phase duration="10" state="rrrrrGGGrrrrrrGGGrrr"/>
        <phase duration="3" state="rrrrryyyrrrrrryyyrrr"/>
        <phase duration="2" state="rrrrrrrrrrrrrrrrrrrr"/>
    </tlLogic>
    <tlLogic id="11" type="static" programID="1" offset="0">
        <phase duration="11" state="GGGrrrrrrrGGGrrrrrrr"/>
        <phase duration="3" state="yyyrrrrrrryyyrrrrrrr"/>
        <phase duration="2" state="rrrrrrrrrrrrrrrrrrrr"/>
        <phase duration="15" state="rrrrrGGGrrrrrrGGGrrr"/>
        <phase duration="3" state="rrrrryyyrrrrrryyyrrr"/>
        <phase duration="2" state="rrrrrrrrrrrrrrrrrrrr"/>
    </tlLogic>
</additional>
