<?xml version="1.0" ?>
<edges>
    <edge from="1" to="2" numLanes="2" id="edge_1-2"/>
    <edge from="1" to="5" numLanes="2" id="edge_1-5"/>
    <edge from="2" to="1" numLanes="2" id="edge_2-1"/>
    <edge from="2" to="3" numLanes="2" id="edge_2-3"/>
    <edge from="2" to="6" numLanes="2" id="edge_2-6"/>
    <edge from="3" to="2" numLanes="2" id="edge_3-2"/>
    <edge from="3" to="4" numLanes="2" id="edge_3-4"/>
    <edge from="3" to="7" numLanes="2" id="edge_3-7"/>
    <edge from="4" to="3" numLanes="2" id="edge_4-3"/>
    <edge from="4" to="8" numLanes="2" id="edge_4-8"/>
    <edge from="5" to="1" numLanes="2" id="edge_5-1"/>
    <edge from="5" to="6" numLanes="2" id="edge_5-6"/>
    <edge from="5" to="9" numLanes="2" id="edge_5-9"/>
    <edge from="6" to="2" numLanes="2" id="edge_6-2"/>
    <edge from="6" to="5" numLanes="2" id="edge_6-5"/>
    <edge from="6" to="7" numLanes="2" id="edge_6-7"/>
    <edge from="6" to="10" numLanes="2" id="edge_6-10"/>
    <edge from="7" to="3" numLanes="2" id="edge_7-3"/>
    <edge from="7" to="6" numLanes="2" id="edge_7-6"/>
    <edge from="7" to="8" numLanes="2" id="edge_7-8"/>
    <edge from="7" to="11" numLanes="2" id="edge_7-11"/>
    <edge from="8" to="4" numLanes="2" id="edge_8-4"/>
    <edge from="8" to="7" numLanes="2" id="edge_8-7"/>
    <edge from="8" to="12" numLanes="2" id="edge_8-12"/>
    <edge from="9" to="5" numLanes="2" id="edge_9-5"/>
    <edge from="9" to="10" numLanes="2" id="edge_9-10"/>
    <edge from="9" to="13" numLanes="2" id="edge_9-13"/>
    <edge from="10" to="6" numLanes="2" id="edge_10-6"/>
    <edge from="10" to="9" numLanes="2" id="edge_10-9"/>
    <edge from="10" to="11" numLanes="2" id="edge_10-11"/>
    <edge from="10" to="14" numLanes="2" id="edge_10-14"/>
    <edge from="11" to="7" numLanes="2" id="edge_11-7"/>
    <edge from="11" to="10" numLanes="2" id="edge_11-10"/>
    <edge from="11" to="12" numLanes="2" id="edge_11-12"/>
    <edge from="11" to="15" numLanes="2" id="edge_11-15"/>
    <edge from="12" to="8" numLanes="2" id="edge_12-8"/>
    <edge from="12" to="11" numLanes="2" id="edge_12-11"/>
    <edge from="12" to="16" numLanes="2" id="edge_12-16"/>
    <edge from="13" to="9" numLanes="2" id="edge_13-9"/>
    <edge from="13" to="14" numLanes="2" id="edge_13-14"/>
    <edge from="14" to="10" numLanes="2" id="edge_14-10"/>
    <edge from="14" to="13" numLanes="2" id="edge_14-13"/>
    <edge from="14" to="15" numLanes="2" id="edge_14-15"/>
    <edge from="15" to="11" numLanes="2" id="edge_15-11"/>
    <edge from="15" to="14" numLanes="2" id="edge_15-14"/>
    <edge from="15" to="16" numLanes="2" id="edge_15-16"/>
    <edge from="16" to="12" numLanes="2" id="edge_16-12"/>
    <edge from="16" to="15" numLanes="2" id="edge_16-15"/>
</edges>
