<?xml version="1.0" encoding="UTF-8"?>

<!-- generated on 2025-08-18 19:30:09 by Eclipse SUMO netconvert Version 1.21.0
<netconvertConfiguration xmlns:xsi="http://www.w3.org/2001/XMLSchema-instance" xsi:noNamespaceSchemaLocation="http://sumo.dlr.de/xsd/netconvertConfiguration.xsd">

    <input>
        <osm-files value="map_assets\budapest_downtown.osm.xml"/>
    </input>

    <output>
        <output-file value="map_assets\budapest_downtown.net.xml"/>
    </output>

    <projection>
        <proj.utm value="true"/>
    </projection>

    <processing>
        <geometry.remove value="true"/>
    </processing>

    <tls_building>
        <tls.join value="true"/>
        <tls.guess-signals value="true"/>
    </tls_building>

    <ramp_guessing>
        <ramps.guess value="true"/>
    </ramp_guessing>

    <junctions>
        <junctions.join value="true"/>
    </junctions>

</netconvertConfiguration>
-->

<net version="1.20" junctionCornerDetail="5" limitTurnSpeed="5.50" xmlns:xsi="http://www.w3.org/2001/XMLSchema-instance" xsi:noNamespaceSchemaLocation="http://sumo.dlr.de/xsd/net_file.xsd">

    <location netOffset="-351138.09,-5262190.82" convBoundary="0.00,0.00,4066.98,1916.42" origBoundary="19.023213,47.496636,19.076883,47.517065" projParameter="+proj=utm +zone=34 +ellps=WGS84 +datum=WGS84 +units=m +no_defs"/>

    <type id="highway.cycleway" priority="1" numLanes="1" speed="5.56" allow="bicycle" oneway="0" width="2.00"/>
    <type id="highway.footway" priority="1" numLanes="1" speed="2.78" allow="pedestrian" oneway="1" width="2.00"/>
    <type id="highway.path" priority="1" numLanes="1" speed="5.56" allow="pedestrian bicycle" oneway="0" width="2.00"/>
    <type id="highway.pedestrian" priority="1" numLanes="1" speed="2.78" allow="pedestrian" oneway="1" width="2.00"/>
    <type id="highway.residential" priority="3" numLanes="1" speed="13.89" disallow="tram rail_urban rail rail_electric rail_fast ship container cable_car subway aircraft wheelchair scooter drone" oneway="0"/>
    <type id="highway.secondary" priority="11" numLanes="1" speed="27.78" disallow="tram rail_urban rail rail_electric rail_fast ship container cable_car subway aircraft wheelchair scooter drone" oneway="0"/>
    <type id="highway.secondary_link" priority="6" numLanes="1" speed="22.22" disallow="tram rail_urban rail rail_electric rail_fast ship container cable_car subway aircraft wheelchair scooter drone" oneway="0"/>
    <type id="highway.service" priority="1" numLanes="1" speed="5.56" allow="pedestrian delivery bicycle" oneway="0"/>
    <type id="highway.steps" priority="1" numLanes="1" speed="1.39" allow="pedestrian" oneway="1" width="2.00"/>
    <type id="highway.tertiary" priority="10" numLanes="1" speed="22.22" disallow="tram rail_urban rail rail_electric rail_fast ship container cable_car subway aircraft wheelchair scooter drone" oneway="0"/>
    <type id="railway.subway" priority="18" numLanes="1" speed="27.78" allow="subway" oneway="1"/>
    <type id="railway.tram" priority="17" numLanes="1" speed="13.89" allow="tram" oneway="1"/>

    <edge id=":10125493554_0" function="internal">
        <lane id=":10125493554_0_0" index="0" disallow="tram rail_urban rail rail_electric rail_fast ship container cable_car subway aircraft wheelchair scooter drone" speed="13.89" length="8.40" shape="2454.16,1185.08 2452.04,1183.74 2450.17,1183.47 2448.29,1183.19 2446.17,1181.85"/>
        <lane id=":10125493554_0_1" index="1" disallow="tram rail_urban rail rail_electric rail_fast ship container cable_car subway aircraft wheelchair scooter drone" speed="13.89" length="8.40" shape="2454.16,1185.08 2448.39,1179.54"/>
    </edge>
    <edge id=":10125493554_2" function="internal">
        <lane id=":10125493554_2_0" index="0" disallow="tram rail_urban rail rail_electric rail_fast ship container cable_car subway aircraft wheelchair scooter drone" speed="13.89" length="8.00" shape="2450.61,1177.23 2456.38,1182.78"/>
    </edge>
    <edge id=":10652971082_0" function="internal">
        <lane id=":10652971082_0_0" index="0" disallow="tram rail_urban rail rail_electric rail_fast ship container cable_car subway aircraft wheelchair scooter drone" speed="13.89" length="1.84" width="3.10" shape="1906.91,994.19 1905.34,993.23"/>
    </edge>
    <edge id=":10652971082_1" function="internal">
        <lane id=":10652971082_1_0" index="0" disallow="tram rail_urban rail rail_electric rail_fast ship container cable_car subway aircraft wheelchair scooter drone" speed="13.89" length="1.84" width="3.10" shape="1906.97,990.59 1908.54,991.55"/>
    </edge>
    <edge id=":10733627317_0" function="internal">
        <lane id=":10733627317_0_0" index="0" allow="subway" speed="19.44" length="5.06" shape="2068.71,752.71 2070.52,747.99"/>
    </edge>
    <edge id=":10855960702_0" function="internal">
        <lane id=":10855960702_0_0" index="0" disallow="tram rail_urban rail rail_electric rail_fast ship container cable_car subway aircraft wheelchair scooter drone" speed="13.89" length="0.10" shape="2057.25,1205.62 2057.25,1205.62"/>
    </edge>
    <edge id=":10855960702_1" function="internal">
        <lane id=":10855960702_1_0" index="0" disallow="tram rail_urban rail rail_electric rail_fast ship container cable_car subway aircraft wheelchair scooter drone" speed="13.89" length="0.10" shape="2057.69,1202.45 2057.69,1202.45"/>
    </edge>
    <edge id=":10893130440_0" function="internal">
        <lane id=":10893130440_0_0" index="0" disallow="tram rail_urban rail rail_electric rail_fast ship container cable_car subway aircraft wheelchair scooter drone" speed="13.89" length="5.01" width="7.90" shape="1957.36,428.11 1957.98,423.14"/>
    </edge>
    <edge id=":11002308404_0" function="internal">
        <lane id=":11002308404_0_0" index="0" disallow="tram rail_urban rail rail_electric rail_fast ship container cable_car subway aircraft wheelchair scooter drone" speed="13.89" length="0.30" shape="2619.46,1345.01 2619.24,1344.81"/>
        <lane id=":11002308404_0_1" index="1" disallow="tram rail_urban rail rail_electric rail_fast ship container cable_car subway aircraft wheelchair scooter drone" speed="13.89" length="0.30" shape="2621.62,1342.64 2621.39,1342.44"/>
    </edge>
    <edge id=":11002308404_2" function="internal">
        <lane id=":11002308404_2_0" index="0" disallow="tram rail_urban rail rail_electric rail_fast ship container cable_car subway aircraft wheelchair scooter drone" speed="13.89" length="0.30" shape="2625.70,1337.70 2625.92,1337.90"/>
        <lane id=":11002308404_2_1" index="1" disallow="tram rail_urban rail rail_electric rail_fast ship container cable_car subway aircraft wheelchair scooter drone" speed="13.89" length="0.30" shape="2623.55,1340.07 2623.77,1340.27"/>
    </edge>
    <edge id=":11002435308_0" function="internal">
        <lane id=":11002435308_0_0" index="0" disallow="tram rail_urban rail rail_electric rail_fast ship container cable_car subway aircraft wheelchair scooter drone" speed="13.89" length="0.30" shape="2560.96,1467.19 2560.77,1467.43"/>
        <lane id=":11002435308_0_1" index="1" disallow="tram rail_urban rail rail_electric rail_fast ship container cable_car subway aircraft wheelchair scooter drone" speed="13.89" length="0.30" shape="2558.43,1465.23 2558.24,1465.47"/>
    </edge>
    <edge id=":11172119953_0" function="internal">
        <lane id=":11172119953_0_0" index="0" allow="pedestrian delivery bicycle" speed="5.56" length="5.02" shape="2257.28,452.83 2256.67,457.81"/>
    </edge>
    <edge id=":11172119953_1" function="internal">
        <lane id=":11172119953_1_0" index="0" allow="pedestrian delivery bicycle" speed="3.65" length="1.44" shape="2257.28,452.83 2256.34,453.93"/>
    </edge>
    <edge id=":11172119953_4" function="internal">
        <lane id=":11172119953_4_0" index="0" allow="pedestrian delivery bicycle" speed="3.65" length="3.23" shape="2256.34,453.93 2255.49,454.23 2254.75,453.73 2254.10,452.44"/>
    </edge>
    <edge id=":11172119953_2" function="internal">
        <lane id=":11172119953_2_0" index="0" allow="pedestrian delivery bicycle" speed="5.56" length="5.02" shape="2253.49,457.42 2254.10,452.44"/>
    </edge>
    <edge id=":11172119953_3" function="internal">
        <lane id=":11172119953_3_0" index="0" allow="pedestrian delivery bicycle" speed="3.65" length="1.44" shape="2253.49,457.42 2254.43,456.33"/>
    </edge>
    <edge id=":11172119953_5" function="internal">
        <lane id=":11172119953_5_0" index="0" allow="pedestrian delivery bicycle" speed="3.65" length="3.23" shape="2254.43,456.33 2255.27,456.03 2256.02,456.52 2256.67,457.81"/>
    </edge>
    <edge id=":11172119960_0" function="internal">
        <lane id=":11172119960_0_0" index="0" disallow="tram rail_urban rail rail_electric rail_fast ship container cable_car subway aircraft wheelchair scooter drone" speed="13.89" length="12.72" shape="2348.57,524.96 2335.94,523.50"/>
    </edge>
    <edge id=":11172119960_1" function="internal">
        <lane id=":11172119960_1_0" index="0" allow="pedestrian delivery bicycle" speed="9.72" length="12.25" shape="2348.57,524.96 2345.26,524.45 2342.58,523.60 2340.19,522.17 2337.79,519.89"/>
    </edge>
    <edge id=":11172119960_2" function="internal">
        <lane id=":11172119960_2_0" index="0" allow="pedestrian delivery bicycle" speed="5.94" length="12.12" shape="2340.16,517.74 2342.27,520.72 2342.27,522.67 2340.16,523.60 2335.94,523.50"/>
    </edge>
    <edge id=":11172119960_3" function="internal">
        <lane id=":11172119960_3_0" index="0" allow="pedestrian delivery bicycle" speed="3.65" length="4.67" shape="2340.16,517.74 2340.38,519.17 2340.05,520.00 2339.19,520.25 2337.79,519.89"/>
    </edge>
    <edge id=":11172119968_0" function="internal">
        <lane id=":11172119968_0_0" index="0" allow="pedestrian delivery bicycle" speed="4.80" length="2.68" shape="2349.86,417.91 2348.42,420.17"/>
    </edge>
    <edge id=":11172119968_1" function="internal">
        <lane id=":11172119968_1_0" index="0" disallow="tram rail_urban rail rail_electric rail_fast ship container cable_car subway aircraft wheelchair scooter drone" speed="3.65" length="1.44" shape="2349.86,417.91 2348.84,416.89"/>
    </edge>
    <edge id=":11172119968_6" function="internal">
        <lane id=":11172119968_6_0" index="0" disallow="tram rail_urban rail rail_electric rail_fast ship container cable_car subway aircraft wheelchair scooter drone" speed="3.65" length="3.23" shape="2348.84,416.89 2348.61,416.03 2349.16,415.32 2350.49,414.77"/>
    </edge>
    <edge id=":11172119968_2" function="internal">
        <lane id=":11172119968_2_0" index="0" disallow="tram rail_urban rail rail_electric rail_fast ship container cable_car subway aircraft wheelchair scooter drone" speed="13.89" length="7.20" shape="2343.44,413.29 2350.49,414.77"/>
    </edge>
    <edge id=":11172119968_3" function="internal">
        <lane id=":11172119968_3_0" index="0" allow="pedestrian delivery bicycle" speed="6.19" length="11.66" shape="2343.44,413.29 2347.44,414.20 2349.60,415.65 2349.93,417.64 2348.42,420.17"/>
    </edge>
    <edge id=":11172119968_4" function="internal">
        <lane id=":11172119968_4_0" index="0" allow="pedestrian delivery bicycle" speed="6.64" length="5.72" shape="2346.00,418.07 2347.45,416.52 2348.68,415.46 2349.69,414.87 2350.49,414.77"/>
    </edge>
    <edge id=":11172119968_5" function="internal">
        <lane id=":11172119968_5_0" index="0" allow="pedestrian delivery bicycle" speed="3.65" length="4.67" shape="2346.00,418.07 2347.39,417.69 2348.26,417.91 2348.60,418.74 2348.42,420.17"/>
    </edge>
    <edge id=":11284526484_0" function="internal">
        <lane id=":11284526484_0_0" index="0" disallow="tram rail_urban rail rail_electric rail_fast ship container cable_car subway aircraft wheelchair scooter drone" speed="13.89" length="8.00" shape="2343.18,1240.15 2335.24,1239.20"/>
    </edge>
    <edge id=":11284526484_1" function="internal">
        <lane id=":11284526484_1_0" index="0" disallow="tram rail_urban rail rail_electric rail_fast ship container cable_car subway aircraft wheelchair scooter drone" speed="13.89" length="8.40" shape="2335.62,1236.02 2338.12,1235.82 2339.78,1234.91 2341.44,1234.00 2343.94,1233.80"/>
        <lane id=":11284526484_1_1" index="1" disallow="tram rail_urban rail rail_electric rail_fast ship container cable_car subway aircraft wheelchair scooter drone" speed="13.89" length="8.40" shape="2335.62,1236.02 2343.56,1236.97"/>
    </edge>
    <edge id=":11390111179_0" function="internal">
        <lane id=":11390111179_0_0" index="0" disallow="tram rail_urban rail rail_electric rail_fast ship container cable_car subway aircraft wheelchair scooter drone" speed="13.89" length="0.30" shape="2097.41,1214.00 2097.11,1213.96"/>
        <lane id=":11390111179_0_1" index="1" disallow="tram rail_urban rail rail_electric rail_fast ship container cable_car subway aircraft wheelchair scooter drone" speed="13.89" length="0.30" shape="2097.79,1210.82 2097.50,1210.79"/>
    </edge>
    <edge id=":11390111179_2" function="internal">
        <lane id=":11390111179_2_0" index="0" disallow="tram rail_urban rail rail_electric rail_fast ship container cable_car subway aircraft wheelchair scooter drone" speed="13.89" length="0.30" shape="2097.88,1207.61 2098.17,1207.64"/>
    </edge>
    <edge id=":11427483519_0" function="internal">
        <lane id=":11427483519_0_0" index="0" allow="pedestrian bicycle" speed="2.78" length="5.03" width="2.00" shape="1258.05,618.75 1257.34,623.73"/>
    </edge>
    <edge id=":11427483519_1" function="internal">
        <lane id=":11427483519_1_0" index="0" allow="pedestrian bicycle" speed="2.78" length="2.92" width="2.00" shape="1258.05,618.75 1257.44,619.42 1256.91,619.59 1256.46,619.27 1256.07,618.46"/>
    </edge>
    <edge id=":11427483519_2" function="internal">
        <lane id=":11427483519_2_0" index="0" allow="pedestrian bicycle" speed="2.78" length="5.07" width="2.00" shape="1255.36,623.47 1256.07,618.46"/>
    </edge>
    <edge id=":11427483519_3" function="internal">
        <lane id=":11427483519_3_0" index="0" allow="pedestrian bicycle" speed="2.78" length="2.92" width="2.00" shape="1255.36,623.47 1255.95,622.79 1256.48,622.61 1256.95,622.93 1257.34,623.73"/>
    </edge>
    <edge id=":11556138659_0" function="internal">
        <lane id=":11556138659_0_0" index="0" allow="tram" speed="11.11" length="0.10" shape="1650.55,805.09 1650.55,805.09"/>
    </edge>
    <edge id=":11556138660_0" function="internal">
        <lane id=":11556138660_0_0" index="0" allow="tram" speed="11.11" length="0.10" shape="1653.62,777.66 1653.62,777.66"/>
    </edge>
    <edge id=":11618329622_0" function="internal">
        <lane id=":11618329622_0_0" index="0" disallow="tram rail_urban rail rail_electric rail_fast ship container cable_car subway aircraft wheelchair scooter drone" speed="13.89" length="8.21" shape="2720.68,1279.92 2719.23,1281.84 2718.54,1283.39 2717.85,1284.94 2716.40,1286.87"/>
        <lane id=":11618329622_0_1" index="1" disallow="tram rail_urban rail rail_electric rail_fast ship container cable_car subway aircraft wheelchair scooter drone" speed="13.89" length="8.21" shape="2720.68,1279.92 2718.87,1281.50 2717.37,1282.30 2715.88,1283.10 2714.06,1284.69"/>
    </edge>
    <edge id=":11618329625_0" function="internal">
        <lane id=":11618329625_0_0" index="0" disallow="tram rail_urban rail rail_electric rail_fast ship container cable_car subway aircraft wheelchair scooter drone" speed="8.33" length="8.21" shape="2770.60,1276.16 2768.51,1274.97 2766.88,1274.49 2765.26,1274.01 2763.16,1272.82"/>
        <lane id=":11618329625_0_1" index="1" disallow="tram rail_urban rail rail_electric rail_fast ship container cable_car subway aircraft wheelchair scooter drone" speed="8.33" length="8.21" shape="2770.60,1276.16 2768.80,1274.57 2767.81,1273.19 2766.83,1271.81 2765.02,1270.21"/>
    </edge>
    <edge id=":11627986903_0" function="internal">
        <lane id=":11627986903_0_0" index="0" allow="pedestrian delivery bicycle" speed="5.06" length="5.02" shape="2512.95,1127.52 2511.84,1126.71 2510.74,1126.46 2509.64,1126.75 2508.55,1127.59"/>
    </edge>
    <edge id=":11627986903_1" function="internal">
        <lane id=":11627986903_1_0" index="0" disallow="tram rail_urban rail rail_electric rail_fast ship container cable_car subway aircraft wheelchair scooter drone" speed="13.89" length="9.40" shape="2512.95,1127.52 2506.22,1120.96"/>
    </edge>
    <edge id=":11627986903_2" function="internal">
        <lane id=":11627986903_2_0" index="0" allow="pedestrian delivery bicycle" speed="5.04" length="5.00" shape="2506.26,1125.35 2507.08,1124.24 2507.34,1123.14 2507.06,1122.05 2506.22,1120.96"/>
    </edge>
    <edge id=":11627986903_3" function="internal">
        <lane id=":11627986903_3_0" index="0" allow="pedestrian delivery bicycle" speed="3.65" length="4.67" shape="2506.26,1125.35 2507.68,1125.05 2508.53,1125.33 2508.82,1126.17 2508.55,1127.59"/>
    </edge>
    <edge id=":11627986904_0" function="internal">
        <lane id=":11627986904_0_0" index="0" allow="pedestrian delivery bicycle" speed="3.65" length="4.67" shape="2480.93,1155.67 2479.52,1155.97 2478.67,1155.69 2478.38,1154.85 2478.65,1153.43"/>
    </edge>
    <edge id=":11649604428_0" function="internal">
        <lane id=":11649604428_0_0" index="0" disallow="tram rail_urban rail rail_electric rail_fast ship container cable_car subway aircraft wheelchair scooter drone" speed="13.89" length="8.40" shape="2131.35,1214.84 2128.84,1215.04 2127.19,1215.95 2125.53,1216.86 2123.02,1217.06"/>
        <lane id=":11649604428_0_1" index="1" disallow="tram rail_urban rail rail_electric rail_fast ship container cable_car subway aircraft wheelchair scooter drone" speed="13.89" length="8.40" shape="2131.35,1214.84 2123.40,1213.89"/>
    </edge>
    <edge id=":11649604428_2" function="internal">
        <lane id=":11649604428_2_0" index="0" disallow="tram rail_urban rail rail_electric rail_fast ship container cable_car subway aircraft wheelchair scooter drone" speed="13.89" length="8.00" shape="2123.78,1210.71 2131.73,1211.66"/>
    </edge>
    <edge id=":11955812147_0" function="internal">
        <lane id=":11955812147_0_0" index="0" allow="tram" speed="6.25" length="0.10" shape="1740.85,391.12 1740.85,391.12"/>
    </edge>
    <edge id=":11961506636_0" function="internal">
        <lane id=":11961506636_0_0" index="0" disallow="tram rail_urban rail rail_electric rail_fast ship container cable_car subway aircraft wheelchair scooter drone" speed="13.89" length="8.21" shape="2726.31,620.89 2725.00,622.92 2724.42,624.51 2723.85,626.10 2722.54,628.13"/>
        <lane id=":11961506636_0_1" index="1" disallow="tram rail_urban rail rail_electric rail_fast ship container cable_car subway aircraft wheelchair scooter drone" speed="13.89" length="8.21" shape="2726.31,620.89 2724.61,622.60 2723.18,623.51 2721.74,624.41 2720.04,626.12"/>
    </edge>
    <edge id=":11970147909_0" function="internal">
        <lane id=":11970147909_0_0" index="0" allow="pedestrian bicycle" speed="5.56" length="5.00" width="2.00" shape="2384.08,1131.87 2383.97,1126.88"/>
    </edge>
    <edge id=":11970147909_1" function="internal">
        <lane id=":11970147909_1_0" index="0" allow="pedestrian bicycle" speed="2.89" length="2.39" width="2.00" shape="2384.08,1131.87 2384.56,1131.11 2385.05,1130.85 2385.56,1131.09 2385.77,1131.39"/>
    </edge>
    <edge id=":11970147909_4" function="internal">
        <lane id=":11970147909_4_0" index="0" allow="pedestrian bicycle" speed="2.89" length="0.53" width="2.00" shape="2385.77,1131.39 2386.08,1131.83"/>
    </edge>
    <edge id=":11970147909_2" function="internal">
        <lane id=":11970147909_2_0" index="0" allow="pedestrian bicycle" speed="5.56" length="5.00" width="2.00" shape="2385.97,1126.83 2386.08,1131.83"/>
    </edge>
    <edge id=":11970147909_3" function="internal">
        <lane id=":11970147909_3_0" index="0" allow="pedestrian bicycle" speed="2.89" length="2.39" width="2.00" shape="2385.97,1126.83 2385.48,1127.59 2384.99,1127.85 2384.48,1127.61 2384.27,1127.31"/>
    </edge>
    <edge id=":11970147909_5" function="internal">
        <lane id=":11970147909_5_0" index="0" allow="pedestrian bicycle" speed="2.89" length="0.53" width="2.00" shape="2384.27,1127.31 2383.97,1126.88"/>
    </edge>
    <edge id=":12010160462_0" function="internal">
        <lane id=":12010160462_0_0" index="0" allow="tram" speed="4.17" length="5.01" shape="1819.76,1025.03 1824.73,1025.71"/>
    </edge>
    <edge id=":12010160463_0" function="internal">
        <lane id=":12010160463_0_0" index="0" allow="tram" speed="4.17" length="5.01" shape="1824.17,1029.93 1819.19,1029.29"/>
    </edge>
    <edge id=":12287498691_0" function="internal">
        <lane id=":12287498691_0_0" index="0" allow="pedestrian delivery bicycle" speed="5.56" length="6.07" shape="2651.84,1014.45 2647.64,1018.83"/>
    </edge>
    <edge id=":12287498691_1" function="internal">
        <lane id=":12287498691_1_0" index="0" allow="pedestrian delivery bicycle" speed="5.56" length="7.68" shape="2651.84,1014.45 2650.63,1015.11 2649.12,1014.96 2647.31,1014.01 2645.21,1012.25"/>
    </edge>
    <edge id=":12287498691_2" function="internal">
        <lane id=":12287498691_2_0" index="0" allow="pedestrian delivery bicycle" speed="3.65" length="4.68" shape="2651.84,1014.45 2650.45,1014.82 2649.58,1014.59 2649.24,1013.76 2649.44,1012.33"/>
    </edge>
    <edge id=":12287498691_3" function="internal">
        <lane id=":12287498691_3_0" index="0" allow="pedestrian delivery bicycle" speed="4.32" length="3.35" shape="2647.43,1009.95 2647.95,1010.71 2648.44,1011.66 2648.93,1012.35 2649.44,1012.33"/>
    </edge>
    <edge id=":12287498691_4" function="internal">
        <lane id=":12287498691_4_0" index="0" allow="pedestrian delivery bicycle" speed="5.56" length="10.12" shape="2647.43,1009.95 2649.13,1012.13 2649.74,1014.34 2649.24,1016.57 2647.64,1018.83"/>
    </edge>
    <edge id=":12287498691_5" function="internal">
        <lane id=":12287498691_5_0" index="0" allow="pedestrian delivery bicycle" speed="3.65" length="4.67" shape="2647.43,1009.95 2647.74,1011.35 2647.47,1012.21 2646.63,1012.51 2645.21,1012.25"/>
    </edge>
    <edge id=":12287498691_6" function="internal">
        <lane id=":12287498691_6_0" index="0" allow="pedestrian delivery bicycle" speed="5.05" length="4.99" shape="2645.32,1016.64 2646.11,1015.52 2646.35,1014.42 2646.05,1013.33 2645.21,1012.25"/>
    </edge>
    <edge id=":12287498691_7" function="internal">
        <lane id=":12287498691_7_0" index="0" allow="pedestrian delivery bicycle" speed="5.56" length="5.96" shape="2645.32,1016.64 2649.44,1012.33"/>
    </edge>
    <edge id=":12287498691_8" function="internal">
        <lane id=":12287498691_8_0" index="0" allow="pedestrian delivery bicycle" speed="3.65" length="4.67" shape="2645.32,1016.64 2646.72,1016.31 2647.58,1016.57 2647.89,1017.41 2647.64,1018.83"/>
    </edge>
    <edge id=":12287498698_0" function="internal">
        <lane id=":12287498698_0_0" index="0" disallow="tram rail_urban rail rail_electric rail_fast ship container cable_car subway aircraft wheelchair scooter drone" speed="13.89" length="9.40" shape="2636.03,1035.62 2629.30,1029.06"/>
    </edge>
    <edge id=":12287498698_1" function="internal">
        <lane id=":12287498698_1_0" index="0" allow="pedestrian delivery bicycle" speed="6.12" length="7.78" shape="2636.03,1035.62 2634.20,1033.56 2633.20,1031.76 2633.02,1030.23 2633.68,1028.97"/>
    </edge>
    <edge id=":12287498698_2" function="internal">
        <lane id=":12287498698_2_0" index="0" allow="pedestrian delivery bicycle" speed="6.07" length="7.80" shape="2636.01,1031.16 2634.77,1031.90 2633.24,1031.79 2631.41,1030.84 2629.30,1029.06"/>
    </edge>
    <edge id=":12287498698_3" function="internal">
        <lane id=":12287498698_3_0" index="0" allow="pedestrian delivery bicycle" speed="3.65" length="4.67" shape="2636.01,1031.16 2634.60,1031.49 2633.74,1031.23 2633.44,1030.39 2633.68,1028.97"/>
    </edge>
    <edge id=":12287498699_0" function="internal">
        <lane id=":12287498699_0_0" index="0" allow="pedestrian delivery bicycle" speed="3.90" length="2.58" shape="2640.56,1001.70 2641.13,1002.11 2641.70,1002.25 2642.26,1002.09 2642.82,1001.66"/>
    </edge>
    <edge id=":12287498699_1" function="internal">
        <lane id=":12287498699_1_0" index="0" allow="pedestrian delivery bicycle" speed="3.90" length="2.58" shape="2640.52,999.44 2641.07,999.00 2641.63,998.85 2642.20,998.98 2642.77,999.40"/>
    </edge>
    <edge id=":12411848109_0" function="internal">
        <lane id=":12411848109_0_0" index="0" allow="pedestrian delivery bicycle" speed="5.03" length="5.01" shape="2195.15,989.39 2193.78,989.42 2192.74,989.87 2192.05,990.77 2191.70,992.10"/>
    </edge>
    <edge id=":12411848109_1" function="internal">
        <lane id=":12411848109_1_0" index="0" allow="pedestrian delivery bicycle" speed="3.65" length="4.67" shape="2195.15,989.39 2194.06,988.45 2193.76,987.60 2194.26,986.86 2195.55,986.22"/>
    </edge>
    <edge id=":12411848109_2" function="internal">
        <lane id=":12411848109_2_0" index="0" allow="pedestrian delivery bicycle" speed="5.07" length="5.03" shape="2192.80,982.76 2192.84,984.13 2193.31,985.16 2194.21,985.85 2195.55,986.22"/>
    </edge>
    <edge id=":12411848109_3" function="internal">
        <lane id=":12411848109_3_0" index="0" disallow="tram rail_urban rail rail_electric rail_fast ship container cable_car subway aircraft wheelchair scooter drone" speed="13.89" length="9.40" shape="2192.80,982.76 2191.70,992.10"/>
    </edge>
    <edge id=":12411848111_0" function="internal">
        <lane id=":12411848111_0_0" index="0" allow="pedestrian delivery bicycle" speed="3.65" length="4.67" shape="2238.81,1023.71 2237.87,1024.80 2237.02,1025.09 2236.28,1024.59 2235.64,1023.30"/>
    </edge>
    <edge id=":12449530881_0" function="internal">
        <lane id=":12449530881_0_0" index="0" allow="pedestrian delivery bicycle" speed="5.56" length="5.10" shape="2666.00,640.68 2662.10,637.39"/>
    </edge>
    <edge id=":12449530881_1" function="internal">
        <lane id=":12449530881_1_0" index="0" allow="pedestrian delivery bicycle" speed="3.65" length="1.44" shape="2666.00,640.68 2665.59,639.29"/>
    </edge>
    <edge id=":12449530881_4" function="internal">
        <lane id=":12449530881_4_0" index="0" allow="pedestrian delivery bicycle" speed="3.65" length="3.23" shape="2665.59,639.29 2665.80,638.42 2666.63,638.07 2668.06,638.23"/>
    </edge>
    <edge id=":12449530881_2" function="internal">
        <lane id=":12449530881_2_0" index="0" allow="pedestrian delivery bicycle" speed="5.56" length="5.10" shape="2664.16,634.94 2668.06,638.23"/>
    </edge>
    <edge id=":12449530881_3" function="internal">
        <lane id=":12449530881_3_0" index="0" allow="pedestrian delivery bicycle" speed="3.65" length="1.44" shape="2664.16,634.94 2664.56,636.33"/>
    </edge>
    <edge id=":12449530881_5" function="internal">
        <lane id=":12449530881_5_0" index="0" allow="pedestrian delivery bicycle" speed="3.65" length="3.23" shape="2664.56,636.33 2664.35,637.20 2663.53,637.55 2662.10,637.39"/>
    </edge>
    <edge id=":12449530897_0" function="internal">
        <lane id=":12449530897_0_0" index="0" allow="pedestrian delivery bicycle" speed="8.33" length="7.67" shape="2646.79,621.92 2646.34,620.96 2646.18,619.38 2646.30,617.19 2646.71,614.38"/>
    </edge>
    <edge id=":12449530897_1" function="internal">
        <lane id=":12449530897_1_0" index="0" allow="pedestrian delivery bicycle" speed="3.65" length="4.67" shape="2646.79,621.92 2646.57,620.49 2646.90,619.66 2647.76,619.42 2649.16,619.77"/>
    </edge>
    <edge id=":12449530897_2" function="internal">
        <lane id=":12449530897_2_0" index="0" disallow="tram rail_urban rail rail_electric rail_fast ship container cable_car subway aircraft wheelchair scooter drone" speed="10.76" length="8.72" shape="2642.42,621.63 2644.34,619.93 2645.49,618.54 2646.18,616.88 2646.71,614.38"/>
    </edge>
    <edge id=":12449530897_3" function="internal">
        <lane id=":12449530897_3_0" index="0" allow="pedestrian delivery bicycle" speed="6.12" length="7.66" shape="2642.42,621.63 2644.62,620.00 2646.48,619.14 2648.00,619.07 2649.16,619.77"/>
    </edge>
    <edge id=":12449530900_0" function="internal">
        <lane id=":12449530900_0_0" index="0" disallow="tram rail_urban rail rail_electric rail_fast ship container cable_car subway aircraft wheelchair scooter drone" speed="13.89" length="7.54" shape="2694.09,656.40 2692.53,657.99 2691.60,659.21 2690.86,660.56 2689.88,662.58"/>
    </edge>
    <edge id=":12449530900_1" function="internal">
        <lane id=":12449530900_1_0" index="0" allow="pedestrian delivery bicycle" speed="5.78" length="6.07" shape="2694.09,656.40 2692.48,657.76 2691.07,658.53 2689.84,658.71 2688.80,658.30"/>
    </edge>
    <edge id=":12449530900_2" function="internal">
        <lane id=":12449530900_2_0" index="0" allow="pedestrian delivery bicycle" speed="6.33" length="7.32" shape="2690.72,655.73 2691.36,656.68 2691.44,658.14 2690.94,660.10 2689.88,662.58"/>
    </edge>
    <edge id=":12449530900_3" function="internal">
        <lane id=":12449530900_3_0" index="0" allow="pedestrian delivery bicycle" speed="3.65" length="4.67" shape="2690.72,655.73 2691.20,657.09 2691.04,657.97 2690.24,658.37 2688.80,658.30"/>
    </edge>
    <edge id=":12459882883_0" function="internal">
        <lane id=":12459882883_0_0" index="0" disallow="tram rail_urban rail rail_electric rail_fast ship container cable_car subway aircraft wheelchair scooter drone" speed="8.33" length="3.52" shape="2700.64,1315.30 2698.06,1312.90"/>
    </edge>
    <edge id=":12459882894_0" function="internal">